384
 generated by VMD
 O         2.338000       14.078000        2.281000
 H         3.452800       13.245700        2.040300
 H         2.662600       13.174900        3.371800
 O         9.424871        6.807200        6.346400
 H         9.740872        7.476028        6.977600
 H         9.392772        7.149600        5.450100
 O        11.566972       13.801001       15.199271
 H        12.529872       13.924500       14.947472
 H        11.360072       12.858400       15.184172
 O         4.435772        7.287800        7.243500
 H         4.107172        7.484700        6.328200
 H         5.190472        6.728300        7.079700
 O         9.027472        3.451827        5.993671
 H         8.924872        4.266228        5.526572
 H         9.126271        3.658129        6.966271
 O        12.688072       12.521500       11.515472
 H        11.810872       12.893400       11.541471
 H        12.633972       11.670800       12.005372
 O        14.419372        9.218628        2.155700
 H        13.541072        8.800429        2.175700
 H        14.186272       10.083028        2.636000
 O         7.230000       15.101100       11.426800
 H         7.424000       15.233600       10.536800
 H         6.656200       15.828300       11.650500
 O         2.133600        1.215400        4.730873
 H         1.198100        1.207000        5.029672
 H         2.078300        1.152700        3.773572
 O         6.676971        8.169301       12.281272
 H         6.934671        7.252700       12.298772
 H         5.965472        8.187800       11.609272
 O        13.346272        5.155100       11.253171
 H        14.069872        4.533800       11.309972
 H        12.614371        4.806000       11.824971
 O         0.147900        6.785800        7.961472
 H        -0.448600        7.143400        8.658772
 H         1.075300        6.932700        8.327871
 O         9.214500        0.784460        5.478872
 H         8.824300        0.345757        6.220871
 H         9.227400        1.755456        5.560772
 O        -0.668000        2.066628        9.396500
 H         0.004100        2.436228        8.830800
 H        -1.507672        2.157027        8.852300
 O        13.660372       11.409800        3.902500
 H        13.435372       11.352200        4.831400
 H        13.847172       12.329600        3.664400
 O         9.720872       12.286000        2.993700
 H         8.870072       12.267900        2.591400
 H        10.431172       12.055100        2.407300
 O        10.960072        6.552400       14.396972
 H        10.753172        7.331200       14.916272
 H        11.785372        6.233800       14.723971
 O         2.304500       12.090000       -0.120900
 H         2.104600       11.588300        0.695200
 H         1.531300       12.307400       -0.622000
 O         1.033000       10.404428        4.274600
 H         0.722100        9.633327        4.783500
 H         1.862900       10.753029        4.703800
 O         9.534172       11.836901        8.347871
 H         9.837172       12.742500        8.457272
 H         8.709171       11.774300        8.870772
 O        12.552872       14.301600        3.238800
 H        12.183571       13.981200        2.424700
 H        12.579472       15.295500        3.111000
 O         5.001872       11.941600       15.549272
 H         4.033372       11.796500       15.492172
 H         5.364172       11.223400       14.983272
 O        12.195971        7.563500        2.612200
 H        12.467872        6.693800        2.144800
 H        11.391871        7.800000        2.134800
 O         3.573400       11.036401        5.281600
 H         4.456400       10.634200        5.439900
 H         3.601900       11.846100        4.714000
 O         9.893600       13.257900       11.396100
 H         9.377500       12.424100       11.333200
 H        10.003300       13.498700       10.440901
 O         1.257600        3.054129        1.322600
 H         0.539800        2.461627        1.615100
 H         2.009700        2.453928        1.515400
 O         2.773400        5.856700        2.433700
 H         1.880600        6.202500        2.255200
 H         3.129600        5.602700        1.586900
 O         8.052471       10.078227        0.525700
 H         7.567472       10.715327        1.141400
 H         7.410972        9.740128       -0.168600
 O         7.790172        1.345629        1.356200
 H         7.758772        0.830028        2.164700
 H         7.523472        0.697329        0.613600
 O         5.419600        0.074329        4.892772
 H         5.789500        0.452929        5.690773
 H         6.198600        0.195128        4.282971
 O         7.712072        5.708427       14.845372
 H         7.955372        4.788229       15.083572
 H         8.494671        5.996928       14.371371
 O         8.504573       10.575000       11.568443
 H         9.153072       10.018400       11.078672
 H         7.765072        9.986101       11.846544
 O         3.525900       13.430800        7.178371
 H         3.745100       13.094000        6.233672
 H         2.861900       12.723600        7.365372
 O         7.570072       12.984628        5.913871
 H         7.731272       12.546229        6.761971
 H         7.257272       13.898329        6.161272
 O         7.734000       15.619500        3.442000
 H         8.440000       15.858499        4.116200
 H         7.641000       14.680400        3.434500
 O        10.584200        8.645628        0.760800
 H        11.212500        9.215730        0.275500
 H         9.676300        9.059628        0.673400
 O         8.226572        2.492329       13.079800
 H         8.738671        1.645128       13.231600
 H         7.590172        2.299029       12.392400
 O        10.969300        4.670428       12.435472
 H        11.068300        5.135729       13.277472
 H        10.096500        4.826628       12.100672
 O        13.224671        3.812529        5.090172
 H        12.374871        3.508228        4.635171
 H        13.878572        4.223327        4.430472
 O         1.768800        9.460500        9.404972
 H         2.326800        9.832600       10.183072
 H         1.853200        8.510100        9.516672
 O         5.808700        6.801128        1.010300
 H         6.166200        7.051300        1.861700
 H         6.503200        6.456728        0.432700
 O        10.221672        8.636500       10.382400
 H        10.925873        8.598801        9.717900
 H         9.619772        7.943800       10.074500
 O        -0.590800        6.319500       14.401372
 H         0.046200        5.606400       14.595272
 H        -0.133300        7.139700       14.212272
 O         2.092600       10.135200        1.841600
 H         1.594000       10.326500        2.653600
 H         2.814000        9.598700        2.224500
 O        11.475971        1.441658        9.719771
 H        12.057672        2.045855        9.313972
 H        11.575772        1.283559       10.650373
 O         9.631871       15.602900       12.978072
 H         8.985171       15.205400       12.296871
 H        10.050172       14.827300       13.398871
 O         0.103000       15.162300        1.407600
 H         0.158700       15.922900        2.013700
 H        -0.081200       14.425000        2.000000
 O         4.099400        4.914728        0.186000
 H         4.410200        4.027128        0.478000
 H         4.798200        5.445628        0.605600
 O         5.080700       12.909900        9.562900
 H         4.677200       13.414200       10.277900
 H         4.313300       12.770700        8.952800
 O        14.273472       15.334630        7.278000
 H        14.863172       14.595229        6.920800
 H        14.200772       15.042328        8.230200
 O        15.786100       12.082329       11.335873
 H        16.109100       12.657127       10.651672
 H        14.837300       12.215029       11.324572
 O         0.930700       14.194000        9.620671
 H         1.126600       14.533900        8.715373
 H        -0.001700       14.444400        9.730772
 O         3.891300       14.241000       11.490671
 H         4.207200       15.142300       11.702771
 H         2.990800       14.363000       11.194671
 O        11.564300        5.514600        8.994172
 H        11.809501        6.455900        8.974072
 H        12.213000        5.118200        9.622972
 O        -0.731800        9.390000       12.264572
 H         0.002000        9.735100       11.708872
 H        -0.430100        9.438400       13.229772
 O        15.234172        1.719127        5.729372
 H        15.051572        1.039127        6.429071
 H        14.464272        2.363928        5.641471
 O         1.485728        4.726300       -0.553400
 H         2.398028        4.991600       -0.452200
 H         1.295729        3.991400        0.028600
 O         5.767473        9.427328       14.537671
 H         4.793672        9.238929       14.654772
 H         6.031072        8.998129       13.673772
 O         5.365872        4.707000        3.746200
 H         4.684572        4.385700        4.385300
 H         4.945772        5.547800        3.383100
 O         3.252200       16.191500        7.326000
 H         3.399700       15.267200        7.192572
 H         2.926800       16.524900        6.448372
 O         6.787227       11.173000        8.698472
 H         6.124428       11.811500        8.885272
 H         6.363629       10.328900        8.911673
 O         8.704872        3.272729       -0.087400
 H         8.457771        2.665829        0.624000
 H         8.458372        2.826128       -0.873300
 O        14.061172       14.614800       14.797471
 H        14.493772       15.020201       15.572772
 H        14.182372       15.146700       14.010672
 O         1.414500        5.780900       12.057300
 H         1.888900        5.071400       11.541400
 H         1.056700        5.424400       12.860800
 O         8.354300        6.094900       11.663100
 H         8.224500        6.464300       10.766500
 H         8.078700        5.204300       11.558800
 O        -0.192100        9.882500       15.128772
 H         0.056000        9.727200       15.687199
 H         0.137600       10.812200       14.956172
 O         3.639300       13.463400        3.973200
 H         3.770100       13.633700        3.049900
 H         4.052200       14.203400        4.370800
 O         1.792200        2.716400        8.353500
 H         1.608000        3.195500        7.486200
 H         2.396300        1.990400        8.142000
 O        12.757872        7.781000        5.477172
 H        12.608871        6.987600        4.946372
 H        12.575972        8.522600        4.931472
 O         4.247500        8.764328        2.985900
 H         5.123300        8.441030        3.135800
 H         3.779700        8.209128        3.610100
 O         0.045800        2.533600       11.971972
 H        -0.147800        2.195900       11.078672
 H         1.008600        2.544200       11.904572
 O        11.557271        1.875828       12.346772
 H        11.265372        2.797528       12.456872
 H        10.870172        1.350029       12.748272
 O         6.882600        7.857500        3.451972
 H         7.192300        8.694600        3.842072
 H         7.398000        7.189628        3.918772
 O         3.691700        9.657001       11.596473
 H         3.164700        9.108900       12.265371
 H         4.349200       10.230200       12.028572
 O         5.127300        1.527729        8.953300
 H         5.051300        1.573627        9.907300
 H         4.262472        1.289729        8.700700
 O        13.876371        0.577127       12.398772
 H        14.397972        1.393229       12.210072
 H        12.960272        0.944828       12.410972
 O        10.941200        0.937000        0.341200
 H        11.042201        0.002400        0.071300
 H        10.159872        1.273200       -0.095900
 O         5.830272        3.201229        6.916900
 H         5.107700        3.288929        6.297200
 H         5.622100        2.434128        7.601900
 O         6.599100        4.346128       10.360801
 H         5.908200        3.759829       10.027600
 H         6.169800        4.817327       11.097700
 O        12.638572        9.933827       14.910872
 H        13.576272        9.785430       15.060072
 H        12.541872        9.982327       13.925271
 O         1.255000        4.729800        6.270371
 H         0.862100        4.795300        5.362272
 H         0.779800        5.481600        6.759672
 O        13.167800        5.594100        0.913400
 H        13.730700        5.831600        0.167200
 H        12.918600        4.670200        0.707400
 O         5.394300        2.758327        1.734700
 H         6.241600        2.270227        1.514400
 H         5.596700        3.296827        2.479200
 O         5.887500       10.719300        2.074471
 H         5.357300       11.306000        1.508072
 H         5.312200       10.010600        2.374572
 O        12.316873        8.259400        8.223800
 H        12.627273        8.086800        7.337901
 H        13.078671        8.203400        8.885700
 O        13.104672       11.765400        6.434172
 H        13.679771       12.065100        7.080272
 H        12.334772       12.392800        6.498272
 O        15.149072        1.874927        3.074272
 H        15.147772        1.623628        4.033071
 H        14.210572        1.664629        2.796072
 O         6.652972        5.713830        6.858472
 H         6.453872        4.702428        6.920671
 H         7.543272        5.843729        6.522672
 O         2.626500        3.815328       10.656500
 H         3.366900        3.247228       10.876400
 H         2.276500        3.500327        9.804800
 O         8.947900        1.248600        9.055471
 H         8.825800        2.170800        8.886372
 H         9.878000        1.202100        9.376371
 O         2.485900        6.816700        9.197072
 H         3.193100        6.776900        8.588471
 H         2.465400        6.129600        9.809872
 O         6.079173       10.254100        6.128900
 H         6.843572       10.571700        5.661300
 H         6.348072       10.236600        7.042000
 O         8.309700        5.337400        3.802600
 H         7.396000        5.003427        3.662800
 H         8.872400        5.131200        3.035200
 O         9.025300        4.121730        8.782072
 H         8.307772        4.242828        9.429972
 H         9.889372        4.457129        9.083500
 O         9.941372        4.975328        1.631500
 H         9.631573        4.492128        0.861200
 H        10.023472        5.856329        1.429800
 O        14.273672        7.499000       10.133372
 H        14.634372        8.156200       10.766672
 H        14.106571        6.728701       10.705771
 O         0.289300        7.009200        1.897300
 H         0.005200        6.552300        1.080700
 H        -0.232100        7.847200        1.985800
 O         3.187700        8.309300        0.158200
 H         3.899600        7.860227        0.631000
 H         2.602400        8.789700        0.793700
 O         3.765000       14.263800        1.228172
 H         4.652400       14.205201        0.832572
 H         3.161900       13.696600        0.655172
 O        13.847672       14.647900       10.080472
 H        13.233972       13.939200       10.311072
 H        13.909672       15.215900       10.878272
 O         0.577800       13.000700        3.525472
 H         0.350100       12.087000        3.712872
 H         1.529600       13.074100        3.715600
 O        12.520072        3.221927        7.895172
 H        12.590572        3.124329        6.929272
 H        12.189000        4.100228        8.088871
 O         7.365200       15.385401        7.480072
 H         8.031600       15.907399        8.036272
 H         6.619600       15.098200        8.008972
 O         2.872200        7.143428        4.701200
 H         3.018200        6.407329        4.041000
 H         1.896500        7.086228        4.869100
 O        11.997772       11.518100        1.663000
 H        12.593672       11.392500        2.400500
 H        12.165572       10.857900        0.971300
 O         0.010300       12.374400       14.180471
 H        -0.537200       13.022000       14.526472
 H        -0.066900       12.262700       13.200072
 O         5.211972        5.170428       12.573671
 H         4.722671        4.368827       12.559872
 H         5.385373        5.480329       13.477972
 O        10.579372       14.146000        8.211371
 H        10.655372       15.034300        8.555672
 H        10.892372       14.077300        7.320471
 O         3.425300        3.545100        5.443400
 H         2.948300        2.653900        5.250000
 H         2.699900        4.112200        5.818600
 O         9.931944        9.448729        7.053972
 H        10.798072        9.066628        7.357772
 H         9.843443       10.279130        7.555771
 O        12.783372        3.170628        0.110272
 H        12.076071        2.499329        0.240572
 H        13.136971        3.005527       -0.717628
 O        10.924700        3.229400        3.779372
 H        10.208772        3.133300        4.393572
 H        10.639600        3.944900        3.214772
 O         5.253300        8.640600        9.581400
 H         4.479000        8.895600       10.047900
 H         4.997500        8.251300        8.752400
 O         7.827771        7.687100        9.260972
 H         6.909300        8.151600        9.281971
 H         7.829772        7.102000        8.490272
 O        11.058372       13.686800        5.714300
 H        11.333773       14.361000        5.090200
 H        10.320671       13.284700        5.318400
 O        10.111972       11.632700       14.301243
 H         9.462672       11.151500       14.843544
 H         9.927700       11.268700       13.425244
 O         0.131500       13.415527        6.471600
 H         0.681700       12.775029        6.959000
 H         0.351800       13.314228        5.510500
 O         2.424300        8.014429       13.153900
 H         2.637700        7.844128       14.054300
 H         2.104300        7.189828       12.767300
 O        12.166372        9.936428       12.276472
 H        12.999472        9.421928       12.070572
 H        11.384472        9.466629       11.884372
 O        15.576371        8.084729        5.551900
 H        15.587873        7.751527        6.436000
 H        14.634972        8.156528        5.278700
 O         1.583600       11.477100        7.506000
 H         1.488000       10.878700        8.249800
 H         1.893272       11.142700        6.700200
 O         3.071700        1.149427        2.247200
 H         3.190300        0.346527        1.671800
 H         3.875600        1.723528        2.227172
 O         5.392800       11.702300       12.428971
 H         6.029200       12.216100       11.922771
 H         4.678600       12.280200       12.665272
 O        15.371272        4.819700        3.768971
 H        15.584372        4.026000        3.285072
 H        15.561972        5.519028        3.140972
 O        12.726700        1.288328        2.561672
 H        12.111400        1.192328        1.732700
 H        12.220000        1.748729        3.194572
 O         6.969471       12.902800        3.234100
 H         6.906272       11.939401        3.044800
 H         6.997672       12.996200        4.188300
 O         7.005872       15.095900       14.990400
 H         7.315872       14.228000       15.229300
 H         6.583671       15.050600       14.124400
 O         8.647372        9.657126        4.705100
 H         9.082272        9.630929        5.607500
 H         9.229872       10.158129        4.088100
